opendss_networks/LV24_246bus/lines.dss
new line.L_9 lineCode=ugsc_16cu_xlpe/nyl/pvc_ug_4w_bundled bus1=B1697 bus2=B2956 length=0.0104945804651 units=km phases=4
new line.L_43 lineCode=ugsc_16cu_xlpe/nyl/pvc_ug_4w_bundled bus1=B2343 bus2=B2945 length=0.0105542361161 units=km phases=4
new line.L_46 lineCode=uglv_240al_xlpe/nyl/pvc_ug_4w_bundled bus1=B1299 bus2=B1368 length=0.0255019153283 units=km phases=4
new line.L_51 lineCode=ugsc_16cu_xlpe/nyl/pvc_ug_4w_bundled bus1=B338 bus2=B2506 length=0.0160100507902 units=km phases=4
new line.L_113 lineCode=uglv_240al_xlpe/nyl/pvc_ug_4w_bundled bus1=B2626 bus2=B2424 length=0.0131530451784 units=km phases=4
new line.L_130 lineCode=ugsc_16cu_xlpe/nyl/pvc_ug_4w_bundled bus1=B1974 bus2=B2313 length=0.00816322563412 units=km phases=4
new line.L_134 lineCode=ugsc_16cu_xlpe/nyl/pvc_ug_4w_bundled bus1=B1820 bus2=B164 length=0.0244345324242 units=km phases=4
new line.L_146 lineCode=ugsc_16cu_xlpe/nyl/pvc_ug_4w_bundled bus1=B2130 bus2=B2328 length=0.0106599551340 units=km phases=4
new line.L_173 lineCode=ugsc_16cu_xlpe/nyl/pvc_ug_4w_bundled bus1=B2363 bus2=B2746 length=0.00831534223562 units=km phases=4
new line.L_190 lineCode=ugsc_16cu_xlpe/nyl/pvc_ug_4w_bundled bus1=B1691 bus2=B3158 length=0.00822172616572 units=km phases=4
new line.L_191 lineCode=uglv_240al_xlpe/nyl/pvc_ug_4w_bundled bus1=B2424 bus2=B1886 length=0.0299027770704 units=km phases=4
new line.L_206 lineCode=ugsc_16cu_xlpe/nyl/pvc_ug_4w_bundled bus1=B445 bus2=B682 length=0.00840475502687 units=km phases=4
new line.L_296 lineCode=ugsc_16cu_xlpe/nyl/pvc_ug_4w_bundled bus1=B2919 bus2=B3389 length=0.0176273861273 units=km phases=4
new line.L_299 lineCode=ugsc_16cu_xlpe/nyl/pvc_ug_4w_bundled bus1=B1739 bus2=B2621 length=0.0105511493087 units=km phases=4
new line.L_323 lineCode=ugsc_16cu_xlpe/nyl/pvc_ug_4w_bundled bus1=B122 bus2=B2980 length=0.0135475641655 units=km phases=4
new line.L_330 lineCode=ugsc_16cu_xlpe/nyl/pvc_ug_4w_bundled bus1=B3323 bus2=B99 length=0.120198297028 units=km phases=4
new line.L_332 lineCode=uglv_240al_xlpe/nyl/pvc_ug_4w_bundled bus1=B3255 bus2=B3158 length=0.0269974018474 units=km phases=4
new line.L_339 lineCode=ugsc_16cu_xlpe/nyl/pvc_ug_4w_bundled bus1=B821 bus2=B1050 length=0.156482171054 units=km phases=4
new line.L_375 lineCode=uglv_240al_xlpe/nyl/pvc_ug_4w_bundled bus1=B1722 bus2=B3180 length=0.0317758866258 units=km phases=4
new line.L_400 lineCode=ugsc_16cu_xlpe/nyl/pvc_ug_4w_bundled bus1=B2854 bus2=B1050 length=0.0104766025059 units=km phases=4
new line.L_417 lineCode=ughv_400al_triplex_ug_4w_bundled bus1=B302 bus2=B2124 length=0.000800000000000 units=km phases=4
new line.L_478 lineCode=ugsc_16cu_xlpe/nyl/pvc_ug_4w_bundled bus1=B2506 bus2=B774 length=0.00526097528307 units=km phases=4
new line.L_547 lineCode=ughv_400al_triplex_ug_4w_bundled bus1=B2727 bus2=B732 length=0.000533088034025 units=km phases=4
new line.L_557 lineCode=ugsc_16cu_xlpe/nyl/pvc_ug_4w_bundled bus1=B2259 bus2=B2360 length=0.0288058757016 units=km phases=4
new line.L_580 lineCode=ugsc_16cu_xlpe/nyl/pvc_ug_4w_bundled bus1=B550 bus2=B2746 length=0.0185650092963 units=km phases=4
new line.L_644 lineCode=ugsc_16cu_xlpe/nyl/pvc_ug_4w_bundled bus1=B2148 bus2=B682 length=0.0269332840620 units=km phases=4
new line.L_652 lineCode=ugsc_16cu_xlpe/nyl/pvc_ug_4w_bundled bus1=B723 bus2=B2774 length=0.00791544589340 units=km phases=4
new line.L_653 lineCode=ugsc_16cu_xlpe/nyl/pvc_ug_4w_bundled bus1=B2783 bus2=B1020 length=0.00792284611870 units=km phases=4
new line.L_656 lineCode=ugsc_16cu_xlpe/nyl/pvc_ug_4w_bundled bus1=B3009 bus2=B1368 length=0.00804268739280 units=km phases=4
new line.L_697 lineCode=ugsc_16cu_xlpe/nyl/pvc_ug_4w_bundled bus1=B3069 bus2=B18 length=0.00534690089835 units=km phases=4
new line.L_703 lineCode=uglv_240al_xlpe/nyl/pvc_ug_4w_bundled bus1=B1920 bus2=B2774 length=0.0477155455752 units=km phases=4
new line.L_729 lineCode=uglv_240al_xlpe/nyl/pvc_ug_4w_bundled bus1=B2222 bus2=B2626 length=0.0355862123140 units=km phases=4
new line.L_736 lineCode=ugsc_16cu_xlpe/nyl/pvc_ug_4w_bundled bus1=B184 bus2=B2468 length=0.0127546383516 units=km phases=4
new line.L_737 lineCode=uglv_240al_xlpe/nyl/pvc_ug_4w_bundled bus1=B3130 bus2=B880 length=0.0399925723448 units=km phases=4
new line.L_748 lineCode=ugsc_16cu_xlpe/nyl/pvc_ug_4w_bundled bus1=B1883 bus2=B1483 length=0.00712660099642 units=km phases=4
new line.L_759 lineCode=ugsc_16cu_xlpe/nyl/pvc_ug_4w_bundled bus1=B2599 bus2=B3311 length=0.0106682319977 units=km phases=4
new line.L_764 lineCode=ugsc_16cu_xlpe/nyl/pvc_ug_4w_bundled bus1=B3113 bus2=B2124 length=0.0109870554870 units=km phases=4
new line.L_795 lineCode=ugsc_16cu_xlpe/nyl/pvc_ug_4w_bundled bus1=B1539 bus2=B645 length=0.0192101402460 units=km phases=4
new line.L_796 lineCode=ugsc_16cu_xlpe/nyl/pvc_ug_4w_bundled bus1=B85 bus2=B1020 length=0.0103349175802 units=km phases=4
new line.L_882 lineCode=ugsc_16cu_xlpe/nyl/pvc_ug_4w_bundled bus1=B2027 bus2=B550 length=0.0105843485645 units=km phases=4
new line.L_912 lineCode=ugsc_16cu_xlpe/nyl/pvc_ug_4w_bundled bus1=B499 bus2=B1678 length=0.00841628679845 units=km phases=4
new line.L_914 lineCode=ugsc_16cu_xlpe/nyl/pvc_ug_4w_bundled bus1=B3208 bus2=B2113 length=0.0106926479255 units=km phases=4
new line.L_918 lineCode=ugsc_16cu_xlpe/nyl/pvc_ug_4w_bundled bus1=B2287 bus2=B2328 length=0.0156153484925 units=km phases=4
new line.L_955 lineCode=ugsc_16cu_xlpe/nyl/pvc_ug_4w_bundled bus1=B1724 bus2=B2222 length=0.0102426477614 units=km phases=4
new line.L_962 lineCode=ugsc_16cu_xlpe/nyl/pvc_ug_4w_bundled bus1=B2298 bus2=B309 length=0.0104631231163 units=km phases=4
new line.L_1038 lineCode=ugsc_16cu_xlpe/nyl/pvc_ug_4w_bundled bus1=B2902 bus2=B2746 length=0.0107939513212 units=km phases=4
new line.L_1045 lineCode=ugsc_16cu_xlpe/nyl/pvc_ug_4w_bundled bus1=B1940 bus2=B2070 length=0.0194024990718 units=km phases=4
new line.L_1095 lineCode=uglv_240al_xlpe/nyl/pvc_ug_4w_bundled bus1=B880 bus2=B3312 length=0.0399943058326 units=km phases=4
new line.L_1123 lineCode=ugsc_16cu_xlpe/nyl/pvc_ug_4w_bundled bus1=B517 bus2=B255 length=0.132452977983 units=km phases=4
new line.L_1150 lineCode=ugsc_16cu_xlpe/nyl/pvc_ug_4w_bundled bus1=B2621 bus2=B2945 length=0.0190953235024 units=km phases=4
new line.L_1173 lineCode=ugsc_16cu_xlpe/nyl/pvc_ug_4w_bundled bus1=B328 bus2=B1886 length=0.0169513539634 units=km phases=4
new line.L_1187 lineCode=ugsc_16cu_xlpe/nyl/pvc_ug_4w_bundled bus1=B3073 bus2=B3040 length=0.0110367049008 units=km phases=4
new line.L_1292 lineCode=ugsc_16cu_xlpe/nyl/pvc_ug_4w_bundled bus1=B2290 bus2=B2113 length=0.0165613702102 units=km phases=4
new line.L_1293 lineCode=ugsc_16cu_xlpe/nyl/pvc_ug_4w_bundled bus1=B2259 bus2=B3311 length=0.0382386690200 units=km phases=4
new line.L_1304 lineCode=uglv_240al_xlpe/nyl/pvc_ug_4w_bundled bus1=B1678 bus2=B2424 length=0.0304725477113 units=km phases=4
new line.L_1309 lineCode=ugsc_16cu_xlpe/nyl/pvc_ug_4w_bundled bus1=B3403 bus2=B1299 length=0.00825974425866 units=km phases=4
new line.L_1313 lineCode=ugsc_16cu_xlpe/nyl/pvc_ug_4w_bundled bus1=B3201 bus2=B209 length=0.0150588173939 units=km phases=4
new line.L_1319 lineCode=uglv_240al_xlpe/nyl/pvc_ug_4w_bundled bus1=B2070 bus2=B2980 length=0.0398232676414 units=km phases=4
new line.L_1345 lineCode=ugsc_16cu_xlpe/nyl/pvc_ug_4w_bundled bus1=B2198 bus2=B2313 length=0.00904734402976 units=km phases=4
new line.L_1392 lineCode=ugsc_16cu_xlpe/nyl/pvc_ug_4w_bundled bus1=B279 bus2=B2124 length=0.00906874935062 units=km phases=4
new line.L_1419 lineCode=ugsc_16cu_xlpe/nyl/pvc_ug_4w_bundled bus1=B75 bus2=B2392 length=0.0254009975769 units=km phases=4
new line.L_1436 lineCode=uglv_240al_xlpe/nyl/pvc_ug_4w_bundled bus1=B779 bus2=B164 length=0.0220259526467 units=km phases=4
new line.L_1524 lineCode=ugsc_16cu_xlpe/nyl/pvc_ug_4w_bundled bus1=B3012 bus2=B1806 length=0.00991455156107 units=km phases=4
new line.L_1535 lineCode=ugsc_16cu_xlpe/nyl/pvc_ug_4w_bundled bus1=B3025 bus2=B1625 length=0.00901844744740 units=km phases=4
new line.L_1546 lineCode=ugsc_16cu_xlpe/nyl/pvc_ug_4w_bundled bus1=B2062 bus2=B2945 length=0.00508095024737 units=km phases=4
new line.L_1566 lineCode=uglv_240al_xlpe/nyl/pvc_ug_4w_bundled bus1=B1394 bus2=B538 length=0.00776171008981 units=km phases=4
new line.L_1576 lineCode=ugsc_16cu_xlpe/nyl/pvc_ug_4w_bundled bus1=B1637 bus2=B3369 length=0.0107809836051 units=km phases=4
new line.L_1617 lineCode=ugsc_16cu_xlpe/nyl/pvc_ug_4w_bundled bus1=B2207 bus2=B2455 length=0.00982931866709 units=km phases=4
new line.L_1682 lineCode=ugsc_16cu_xlpe/nyl/pvc_ug_4w_bundled bus1=B1720 bus2=B2480 length=0.0105343581415 units=km phases=4
new line.L_1711 lineCode=uglv_240al_xlpe/nyl/pvc_ug_4w_bundled bus1=B2328 bus2=B2313 length=0.0536405252644 units=km phases=4
new line.L_1751 lineCode=ugsc_16cu_xlpe/nyl/pvc_ug_4w_bundled bus1=B2934 bus2=B2287 length=0.00806041170917 units=km phases=4
new line.L_1763 lineCode=ugsc_16cu_xlpe/nyl/pvc_ug_4w_bundled bus1=B2313 bus2=B2550 length=0.0188019610192 units=km phases=4
new line.L_1792 lineCode=ugsc_16cu_xlpe/nyl/pvc_ug_4w_bundled bus1=B2083 bus2=B2883 length=0.0190855958741 units=km phases=4
new line.L_1805 lineCode=ugsc_16cu_xlpe/nyl/pvc_ug_4w_bundled bus1=B2480 bus2=B2948 length=0.0126975649053 units=km phases=4
new line.L_1830 lineCode=ugsc_16cu_xlpe/nyl/pvc_ug_4w_bundled bus1=B2873 bus2=B2392 length=0.0135911479809 units=km phases=4
new line.L_1851 lineCode=ugsc_16cu_xlpe/nyl/pvc_ug_4w_bundled bus1=B2640 bus2=B2948 length=0.00802743280893 units=km phases=4
new line.L_1862 lineCode=ugsc_16cu_xlpe/nyl/pvc_ug_4w_bundled bus1=B3394 bus2=B2403 length=0.00562920736809 units=km phases=4
new line.L_1872 lineCode=ughv_400al_triplex_ug_4w_bundled bus1=B2727 bus2=B3028 length=0.000206301915236 units=km phases=4
new line.L_1878 lineCode=uglv_240al_xlpe/nyl/pvc_ug_4w_bundled bus1=B1368 bus2=B1722 length=0.0280510268874 units=km phases=4
new line.L_1882 lineCode=ughv_400al_triplex_ug_4w_bundled bus1=B1560 bus2=B294 length=7.47735676854e-05 units=km phases=4
new line.L_1917 lineCode=uglv_240al_xlpe/nyl/pvc_ug_4w_bundled bus1=B1727 bus2=B2455 length=0.0394964082782 units=km phases=4
new line.L_1930 lineCode=uglv_240al_xlpe/nyl/pvc_ug_4w_bundled bus1=B1807 bus2=B1020 length=0.0386366073021 units=km phases=4
new line.L_2005 lineCode=ugsc_16cu_xlpe/nyl/pvc_ug_4w_bundled bus1=B1415 bus2=B1368 length=0.00878118290430 units=km phases=4
new line.L_2022 lineCode=ugsc_16cu_xlpe/nyl/pvc_ug_4w_bundled bus1=B2454 bus2=B1727 length=0.0100287918749 units=km phases=4
new line.L_2033 lineCode=ugsc_16cu_xlpe/nyl/pvc_ug_4w_bundled bus1=B2072 bus2=B2956 length=0.0106136444846 units=km phases=4
new line.L_2068 lineCode=ugsc_16cu_xlpe/nyl/pvc_ug_4w_bundled bus1=B205 bus2=B2420 length=0.0108234199783 units=km phases=4
new line.L_2073 lineCode=uglv_240al_xlpe/nyl/pvc_ug_4w_bundled bus1=B205 bus2=B3204 length=0.0150224543552 units=km phases=4
new line.L_2087 lineCode=ugsc_16cu_xlpe/nyl/pvc_ug_4w_bundled bus1=B59 bus2=B3118 length=0.00830602297023 units=km phases=4
new line.L_2099 lineCode=ugsc_16cu_xlpe/nyl/pvc_ug_4w_bundled bus1=B2684 bus2=B2774 length=0.0243082991048 units=km phases=4
new line.L_2107 lineCode=uglv_240al_xlpe/nyl/pvc_ug_4w_bundled bus1=B1020 bus2=B3118 length=0.0298920334217 units=km phases=4
new line.L_2112 lineCode=ugsc_16cu_xlpe/nyl/pvc_ug_4w_bundled bus1=B1961 bus2=B2948 length=0.00809693608922 units=km phases=4
new line.L_2114 lineCode=ugsc_16cu_xlpe/nyl/pvc_ug_4w_bundled bus1=B2480 bus2=B353 length=0.0209829400921 units=km phases=4
new line.L_2115 lineCode=ugsc_16cu_xlpe/nyl/pvc_ug_4w_bundled bus1=B1412 bus2=B1299 length=0.00816228699772 units=km phases=4
new line.L_2178 lineCode=ugsc_16cu_xlpe/nyl/pvc_ug_4w_bundled bus1=B1100 bus2=B3130 length=0.0195185175594 units=km phases=4
new line.L_2181 lineCode=uglv_240al_xlpe/nyl/pvc_ug_4w_bundled bus1=B99 bus2=B1050 length=0.0435902930063 units=km phases=4
new line.L_2205 lineCode=ugsc_16cu_xlpe/nyl/pvc_ug_4w_bundled bus1=B309 bus2=B2259 length=0.0141263149682 units=km phases=4
new line.L_2206 lineCode=ugsc_16cu_xlpe/nyl/pvc_ug_4w_bundled bus1=B653 bus2=B1807 length=0.0105856378359 units=km phases=4
new line.L_2209 lineCode=ugsc_16cu_xlpe/nyl/pvc_ug_4w_bundled bus1=B788 bus2=B3312 length=0.0105891030624 units=km phases=4
new line.L_2218 lineCode=ughv_400al_triplex_ug_4w_bundled bus1=B2949 bus2=B3328 length=7.47735676854e-05 units=km phases=4
new line.L_2222 lineCode=ugsc_16cu_xlpe/nyl/pvc_ug_4w_bundled bus1=B953 bus2=B2124 length=0.00503297621114 units=km phases=4
new line.L_2224 lineCode=ugsc_16cu_xlpe/nyl/pvc_ug_4w_bundled bus1=B1051 bus2=B2083 length=0.0105801423313 units=km phases=4
new line.L_2232 lineCode=ugsc_16cu_xlpe/nyl/pvc_ug_4w_bundled bus1=B684 bus2=B2506 length=0.0152199416111 units=km phases=4
new line.L_2245 lineCode=uglv_240al_xlpe/nyl/pvc_ug_4w_bundled bus1=B18 bus2=B2124 length=0.0413870316374 units=km phases=4
new line.L_2264 lineCode=ugsc_16cu_xlpe/nyl/pvc_ug_4w_bundled bus1=B827 bus2=B3012 length=0.0229739220917 units=km phases=4
new line.L_2268 lineCode=ugsc_16cu_xlpe/nyl/pvc_ug_4w_bundled bus1=B1672 bus2=B3205 length=0.0105542181680 units=km phases=4
new line.L_2297 lineCode=ugsc_16cu_xlpe/nyl/pvc_ug_4w_bundled bus1=B2671 bus2=B3311 length=0.0114298965967 units=km phases=4
new line.L_2337 lineCode=uglv_240al_xlpe/nyl/pvc_ug_4w_bundled bus1=B3012 bus2=B2480 length=0.0325690610979 units=km phases=4
new line.L_2355 lineCode=ughv_400al_triplex_ug_4w_bundled bus1=B3034 bus2=B2727 length=0.000244629175463 units=km phases=4
new line.L_2363 lineCode=ugsc_16cu_xlpe/nyl/pvc_ug_4w_bundled bus1=B661 bus2=B3158 length=0.00757297557830 units=km phases=4
new line.L_2370 lineCode=ugsc_16cu_xlpe/nyl/pvc_ug_4w_bundled bus1=B99 bus2=B645 length=0.0213076694553 units=km phases=4
new line.L_2387 lineCode=ugsc_16cu_xlpe/nyl/pvc_ug_4w_bundled bus1=B2383 bus2=B3311 length=0.0208990530463 units=km phases=4
new line.L_2410 lineCode=ugsc_16cu_xlpe/nyl/pvc_ug_4w_bundled bus1=B511 bus2=B309 length=0.0111566200453 units=km phases=4
new line.L_2442 lineCode=ugsc_16cu_xlpe/nyl/pvc_ug_4w_bundled bus1=B3224 bus2=B2883 length=0.0105738365940 units=km phases=4
new line.L_2446 lineCode=ugsc_16cu_xlpe/nyl/pvc_ug_4w_bundled bus1=B208 bus2=B714 length=0.0232033711856 units=km phases=4
new line.L_2461 lineCode=ugsc_16cu_xlpe/nyl/pvc_ug_4w_bundled bus1=B510 bus2=B2222 length=0.00898788769646 units=km phases=4
new line.L_2495 lineCode=uglv_240al_xlpe/nyl/pvc_ug_4w_bundled bus1=B3130 bus2=B1637 length=0.0446994235746 units=km phases=4
new line.L_2500 lineCode=uglv_240al_xlpe/nyl/pvc_ug_4w_bundled bus1=B3118 bus2=B464 length=0.0454371019141 units=km phases=4
new line.L_2504 lineCode=uglv_240al_xlpe/nyl/pvc_ug_4w_bundled bus1=B3312 bus2=B1807 length=0.0400290890505 units=km phases=4
new line.L_2526 lineCode=ugsc_16cu_xlpe/nyl/pvc_ug_4w_bundled bus1=B22 bus2=B3204 length=0.00618201593242 units=km phases=4
new line.L_2531 lineCode=ugsc_16cu_xlpe/nyl/pvc_ug_4w_bundled bus1=B3333 bus2=B1368 length=0.0186774031537 units=km phases=4
new line.L_2540 lineCode=uglv_240al_xlpe/nyl/pvc_ug_4w_bundled bus1=B3180 bus2=B1592 length=0.0275897260761 units=km phases=4
new line.L_2550 lineCode=ugsc_16cu_xlpe/nyl/pvc_ug_4w_bundled bus1=B2113 bus2=B1957 length=0.00547179092019 units=km phases=4
new line.L_2556 lineCode=ugsc_16cu_xlpe/nyl/pvc_ug_4w_bundled bus1=B2889 bus2=B255 length=0.125352057864 units=km phases=4
new line.L_2566 lineCode=ugsc_16cu_xlpe/nyl/pvc_ug_4w_bundled bus1=B2368 bus2=B2424 length=0.00613155615426 units=km phases=4
new line.L_2571 lineCode=uglv_240al_xlpe/nyl/pvc_ug_4w_bundled bus1=B2945 bus2=B2883 length=0.0400003224814 units=km phases=4
new line.L_2576 lineCode=ugsc_16cu_xlpe/nyl/pvc_ug_4w_bundled bus1=B2120 bus2=B464 length=0.0175243568070 units=km phases=4
new line.L_2584 lineCode=uglv_240al_xlpe/nyl/pvc_ug_4w_bundled bus1=B1483 bus2=B1920 length=0.0459489384714 units=km phases=4
new line.L_2616 lineCode=ugsc_16cu_xlpe/nyl/pvc_ug_4w_bundled bus1=B2058 bus2=B2626 length=0.00949610079426 units=km phases=4
new line.L_2653 lineCode=ugsc_16cu_xlpe/nyl/pvc_ug_4w_bundled bus1=B2183 bus2=B3204 length=0.00750476925547 units=km phases=4
new line.L_2680 lineCode=ugsc_16cu_xlpe/nyl/pvc_ug_4w_bundled bus1=B2626 bus2=B3346 length=0.0188653629298 units=km phases=4
new line.L_2686 lineCode=ugsc_16cu_xlpe/nyl/pvc_ug_4w_bundled bus1=B1823 bus2=B645 length=0.0104819812527 units=km phases=4
new line.L_2696 lineCode=uglv_240al_xlpe/nyl/pvc_ug_4w_bundled bus1=B3180 bus2=B3255 length=0.0131806784020 units=km phases=4
new line.L_2715 lineCode=ugsc_16cu_xlpe/nyl/pvc_ug_4w_bundled bus1=B2013 bus2=B1637 length=0.0140789464662 units=km phases=4
new line.L_2737 lineCode=ugsc_16cu_xlpe/nyl/pvc_ug_4w_bundled bus1=B2641 bus2=B1727 length=0.0108307791814 units=km phases=4
new line.L_2752 lineCode=uglv_240al_xlpe/nyl/pvc_ug_4w_bundled bus1=B2313 bus2=B1920 length=0.0312890077522 units=km phases=4
new line.L_2796 lineCode=ugsc_16cu_xlpe/nyl/pvc_ug_4w_bundled bus1=B538 bus2=B1721 length=0.0121122081277 units=km phases=4
new line.L_2801 lineCode=ugsc_16cu_xlpe/nyl/pvc_ug_4w_bundled bus1=B2328 bus2=B184 length=0.0318554561721 units=km phases=4
new line.L_2840 lineCode=ugsc_16cu_xlpe/nyl/pvc_ug_4w_bundled bus1=B2189 bus2=B1886 length=0.00821758891809 units=km phases=4
new line.L_2852 lineCode=ugsc_16cu_xlpe/nyl/pvc_ug_4w_bundled bus1=B2455 bus2=B209 length=0.0161364431087 units=km phases=4
new line.L_2871 lineCode=ugsc_16cu_xlpe/nyl/pvc_ug_4w_bundled bus1=B2790 bus2=B2328 length=0.0202332085264 units=km phases=4
new line.L_2900 lineCode=uglv_240al_xlpe/nyl/pvc_ug_4w_bundled bus1=B3281 bus2=B1625 length=0.0591090339653 units=km phases=4
new line.L_2905 lineCode=ugsc_16cu_xlpe/nyl/pvc_ug_4w_bundled bus1=B1722 bus2=B1695 length=0.00501780337810 units=km phases=4
new line.L_2941 lineCode=ugsc_16cu_xlpe/nyl/pvc_ug_4w_bundled bus1=B283 bus2=B2626 length=0.00959182936716 units=km phases=4
new line.L_2953 lineCode=ugsc_16cu_xlpe/nyl/pvc_ug_4w_bundled bus1=B442 bus2=B880 length=0.00494994629799 units=km phases=4
new line.L_2956 lineCode=ugsc_16cu_xlpe/nyl/pvc_ug_4w_bundled bus1=B1654 bus2=B3255 length=0.00753378847959 units=km phases=4
new line.L_2962 lineCode=ugsc_16cu_xlpe/nyl/pvc_ug_4w_bundled bus1=B1920 bus2=B3110 length=0.00558075563890 units=km phases=4
new line.L_2974 lineCode=ugsc_16cu_xlpe/nyl/pvc_ug_4w_bundled bus1=B3341 bus2=B2287 length=0.0103295760578 units=km phases=4
new line.L_3017 lineCode=uglv_240al_xlpe/nyl/pvc_ug_4w_bundled bus1=B2746 bus2=B1678 length=0.0305839972302 units=km phases=4
new line.L_3040 lineCode=ugsc_16cu_xlpe/nyl/pvc_ug_4w_bundled bus1=B3345 bus2=B880 length=0.0105915889033 units=km phases=4
new line.L_3052 lineCode=ughv_400al_triplex_ug_4w_bundled bus1=B448 bus2=B254 length=7.47735676854e-05 units=km phases=4
new line.L_3080 lineCode=ugsc_16cu_xlpe/nyl/pvc_ug_4w_bundled bus1=B1341 bus2=B2287 length=0.0641467806866 units=km phases=4
new line.L_3089 lineCode=ugsc_16cu_xlpe/nyl/pvc_ug_4w_bundled bus1=B3062 bus2=B3118 length=0.0150206669557 units=km phases=4
new line.L_3139 lineCode=ugsc_16cu_xlpe/nyl/pvc_ug_4w_bundled bus1=B2823 bus2=B2070 length=0.00495100355434 units=km phases=4
new line.L_3142 lineCode=ugsc_16cu_xlpe/nyl/pvc_ug_4w_bundled bus1=B2345 bus2=B2083 length=0.0265984031587 units=km phases=4
new line.L_3183 lineCode=ugsc_16cu_xlpe/nyl/pvc_ug_4w_bundled bus1=B1280 bus2=B3394 length=0.0177281392185 units=km phases=4
new line.L_3185 lineCode=ugsc_16cu_xlpe/nyl/pvc_ug_4w_bundled bus1=B1727 bus2=B2392 length=0.0137616485759 units=km phases=4
new line.L_3195 lineCode=uglv_240al_xlpe/nyl/pvc_ug_4w_bundled bus1=B2883 bus2=B3394 length=0.0540499269387 units=km phases=4
new line.L_3210 lineCode=ugsc_16cu_xlpe/nyl/pvc_ug_4w_bundled bus1=B2410 bus2=B1020 length=0.00513417132820 units=km phases=4
new line.L_3249 lineCode=ugsc_16cu_xlpe/nyl/pvc_ug_4w_bundled bus1=B2784 bus2=B2420 length=0.00948880310570 units=km phases=4
new line.L_3268 lineCode=ugsc_16cu_xlpe/nyl/pvc_ug_4w_bundled bus1=B682 bus2=B1508 length=0.00536040765777 units=km phases=4
new line.L_3305 lineCode=ugsc_16cu_xlpe/nyl/pvc_ug_4w_bundled bus1=B2152 bus2=B2480 length=0.0107709838505 units=km phases=4
new line.L_3308 lineCode=ugsc_16cu_xlpe/nyl/pvc_ug_4w_bundled bus1=B3389 bus2=B879 length=0.00582392717377 units=km phases=4
new line.L_3320 lineCode=uglv_240al_xlpe/nyl/pvc_ug_4w_bundled bus1=B3130 bus2=B164 length=0.0638832724686 units=km phases=4
new line.L_3323 lineCode=ugsc_16cu_xlpe/nyl/pvc_ug_4w_bundled bus1=B1409 bus2=B3180 length=0.0282810483617 units=km phases=4
new line.L_3329 lineCode=ugsc_16cu_xlpe/nyl/pvc_ug_4w_bundled bus1=B2980 bus2=B3389 length=0.0149721479432 units=km phases=4
new line.L_3341 lineCode=ugsc_16cu_xlpe/nyl/pvc_ug_4w_bundled bus1=B2449 bus2=B550 length=0.00519507195737 units=km phases=4
new line.L_3360 lineCode=ugsc_16cu_xlpe/nyl/pvc_ug_4w_bundled bus1=B1525 bus2=B1592 length=0.00787541339649 units=km phases=4
new line.L_3401 lineCode=ugsc_16cu_xlpe/nyl/pvc_ug_4w_bundled bus1=B2881 bus2=B18 length=0.0109725281542 units=km phases=4
new line.L_3437 lineCode=ugsc_16cu_xlpe/nyl/pvc_ug_4w_bundled bus1=B1678 bus2=B1880 length=0.00558342217356 units=km phases=4
new line.L_3494 lineCode=ugsc_16cu_xlpe/nyl/pvc_ug_4w_bundled bus1=B2113 bus2=B3012 length=0.0228473894962 units=km phases=4
new line.L_3496 lineCode=uglv_240al_xlpe/nyl/pvc_ug_4w_bundled bus1=B18 bus2=B3012 length=0.0537054974602 units=km phases=4
new line.L_3508 lineCode=ugsc_16cu_xlpe/nyl/pvc_ug_4w_bundled bus1=B3038 bus2=B880 length=0.0105567816458 units=km phases=4
new line.L_3565 lineCode=ugsc_16cu_xlpe/nyl/pvc_ug_4w_bundled bus1=B2774 bus2=B995 length=0.00606231183076 units=km phases=4
new line.L_3567 lineCode=ughv_400al_triplex_ug_4w_bundled bus1=B2735 bus2=B1637 length=0.000800000000000 units=km phases=4
new line.L_3629 lineCode=ugsc_16cu_xlpe/nyl/pvc_ug_4w_bundled bus1=B1914 bus2=B2259 length=0.00846823911596 units=km phases=4
new line.L_3632 lineCode=ugsc_16cu_xlpe/nyl/pvc_ug_4w_bundled bus1=B2083 bus2=B174 length=0.00552679257584 units=km phases=4
new line.L_3634 lineCode=ugsc_16cu_xlpe/nyl/pvc_ug_4w_bundled bus1=B53 bus2=B2621 length=0.0105769708361 units=km phases=4
new line.L_3636 lineCode=ugsc_16cu_xlpe/nyl/pvc_ug_4w_bundled bus1=B1846 bus2=B3312 length=0.0105480385169 units=km phases=4
new line.L_3641 lineCode=ugsc_16cu_xlpe/nyl/pvc_ug_4w_bundled bus1=B3320 bus2=B164 length=0.0130488328451 units=km phases=4
new line.L_3655 lineCode=ugsc_16cu_xlpe/nyl/pvc_ug_4w_bundled bus1=B2367 bus2=B2259 length=0.0602276690175 units=km phases=4
new line.L_3706 lineCode=ugsc_16cu_xlpe/nyl/pvc_ug_4w_bundled bus1=B261 bus2=B1886 length=0.00529802795221 units=km phases=4
new line.L_3720 lineCode=ugsc_16cu_xlpe/nyl/pvc_ug_4w_bundled bus1=B1459 bus2=B2424 length=0.0177311118763 units=km phases=4
new line.L_3814 lineCode=ugsc_16cu_xlpe/nyl/pvc_ug_4w_bundled bus1=B1483 bus2=B2138 length=0.0161993547358 units=km phases=4
new line.L_3823 lineCode=uglv_240al_xlpe/nyl/pvc_ug_4w_bundled bus1=B3040 bus2=B2070 length=0.0423672344499 units=km phases=4
new line.L_3848 lineCode=ugsc_16cu_xlpe/nyl/pvc_ug_4w_bundled bus1=B3071 bus2=B3312 length=0.0208436829128 units=km phases=4
new line.L_3899 lineCode=ugsc_16cu_xlpe/nyl/pvc_ug_4w_bundled bus1=B877 bus2=B18 length=0.0162717245022 units=km phases=4
new line.L_3911 lineCode=ugsc_16cu_xlpe/nyl/pvc_ug_4w_bundled bus1=B3052 bus2=B1678 length=0.00877105475594 units=km phases=4
new line.L_3917 lineCode=ugsc_16cu_xlpe/nyl/pvc_ug_4w_bundled bus1=B2222 bus2=B2506 length=0.0176219280652 units=km phases=4
new line.L_3920 lineCode=uglv_240al_xlpe/nyl/pvc_ug_4w_bundled bus1=B2980 bus2=B99 length=0.0275669301388 units=km phases=4
new line.L_3960 lineCode=uglv_240al_xlpe/nyl/pvc_ug_4w_bundled bus1=B2497 bus2=B2259 length=0.179011032396 units=km phases=4
new line.L_3978 lineCode=uglv_240al_xlpe/nyl/pvc_ug_4w_bundled bus1=B2259 bus2=B2746 length=0.0559874409858 units=km phases=4
new line.L_3994 lineCode=uglv_240al_xlpe/nyl/pvc_ug_4w_bundled bus1=B2070 bus2=B1727 length=0.0412616663370 units=km phases=4
new line.L_4016 lineCode=uglv_240al_xlpe/nyl/pvc_ug_4w_bundled bus1=B1625 bus2=B18 length=0.0127324289394 units=km phases=4
new line.L_4046 lineCode=ugsc_16cu_xlpe/nyl/pvc_ug_4w_bundled bus1=B3130 bus2=B2691 length=0.0191044083973 units=km phases=4
new line.L_4078 lineCode=ugsc_16cu_xlpe/nyl/pvc_ug_4w_bundled bus1=B1566 bus2=B3180 length=0.0104757662007 units=km phases=4
new line.L_4114 lineCode=uglv_240al_xlpe/nyl/pvc_ug_4w_bundled bus1=B1592 bus2=B164 length=0.0444564532128 units=km phases=4
new line.L_4117 lineCode=ugsc_16cu_xlpe/nyl/pvc_ug_4w_bundled bus1=B757 bus2=B1592 length=0.0188915644441 units=km phases=4
new line.L_4144 lineCode=ugsc_16cu_xlpe/nyl/pvc_ug_4w_bundled bus1=B3407 bus2=B2083 length=0.0105480912807 units=km phases=4
new line.L_4161 lineCode=uglv_240al_xlpe/nyl/pvc_ug_4w_bundled bus1=B538 bus2=B2945 length=0.0394962161405 units=km phases=4
new line.L_4165 lineCode=ugsc_16cu_xlpe/nyl/pvc_ug_4w_bundled bus1=B796 bus2=B3205 length=0.0105679997144 units=km phases=4
new line.L_4173 lineCode=ugsc_16cu_xlpe/nyl/pvc_ug_4w_bundled bus1=B2380 bus2=B184 length=0.00889228396152 units=km phases=4
new line.L_4188 lineCode=ugsc_16cu_xlpe/nyl/pvc_ug_4w_bundled bus1=B3155 bus2=B1920 length=0.0127811831688 units=km phases=4
new line.L_4209 lineCode=ugsc_16cu_xlpe/nyl/pvc_ug_4w_bundled bus1=B2895 bus2=B3180 length=0.00744465944419 units=km phases=4
new line.L_4269 lineCode=ugsc_16cu_xlpe/nyl/pvc_ug_4w_bundled bus1=B376 bus2=B409 length=0.0103445488295 units=km phases=4
new line.L_4283 lineCode=ughv_400al_triplex_ug_4w_bundled bus1=B3146 bus2=B1607 length=7.47735676854e-05 units=km phases=4
new line.L_4289 lineCode=ugsc_16cu_xlpe/nyl/pvc_ug_4w_bundled bus1=B844 bus2=B550 length=0.0104625840039 units=km phases=4
new line.L_4293 lineCode=ugsc_16cu_xlpe/nyl/pvc_ug_4w_bundled bus1=B160 bus2=B2883 length=0.0105542546271 units=km phases=4
new line.L_4296 lineCode=ugsc_16cu_xlpe/nyl/pvc_ug_4w_bundled bus1=B672 bus2=B409 length=0.00753666637522 units=km phases=4
new line.L_4303 lineCode=uglv_240al_xlpe/nyl/pvc_ug_4w_bundled bus1=B682 bus2=B2222 length=0.0557896792778 units=km phases=4
new line.L_4304 lineCode=ugsc_16cu_xlpe/nyl/pvc_ug_4w_bundled bus1=B1286 bus2=B2392 length=0.00526804212887 units=km phases=4
new line.L_4315 lineCode=ugsc_16cu_xlpe/nyl/pvc_ug_4w_bundled bus1=B3188 bus2=B2420 length=0.00427025107531 units=km phases=4
new line.L_4329 lineCode=ugsc_16cu_xlpe/nyl/pvc_ug_4w_bundled bus1=B2765 bus2=B1483 length=0.00409718077965 units=km phases=4
new line.L_4332 lineCode=uglv_240al_xlpe/nyl/pvc_ug_4w_bundled bus1=B3394 bus2=B3040 length=0.0127892321415 units=km phases=4
new line.L_4352 lineCode=uglv_240al_xlpe/nyl/pvc_ug_4w_bundled bus1=B2480 bus2=B2328 length=0.0400795397017 units=km phases=4
new line.L_4388 lineCode=ugsc_16cu_xlpe/nyl/pvc_ug_4w_bundled bus1=B2731 bus2=B2945 length=0.0105769741357 units=km phases=4
new line.L_4394 lineCode=ugsc_16cu_xlpe/nyl/pvc_ug_4w_bundled bus1=B2956 bus2=B1678 length=0.0132979256370 units=km phases=4
new line.L_4412 lineCode=ugsc_16cu_xlpe/nyl/pvc_ug_4w_bundled bus1=B630 bus2=B1727 length=0.0106765493690 units=km phases=4
new line.L_4433 lineCode=ugsc_16cu_xlpe/nyl/pvc_ug_4w_bundled bus1=B423 bus2=B3118 length=0.00775239180565 units=km phases=4
new line.L_4447 lineCode=ugsc_16cu_xlpe/nyl/pvc_ug_4w_bundled bus1=B3298 bus2=B3311 length=0.0275662316852 units=km phases=4
new line.L_4448 lineCode=ugsc_16cu_xlpe/nyl/pvc_ug_4w_bundled bus1=B1592 bus2=B450 length=0.00635618675904 units=km phases=4
new line.L_4478 lineCode=ugsc_16cu_xlpe/nyl/pvc_ug_4w_bundled bus1=B1830 bus2=B3130 length=0.0105801118718 units=km phases=4
new line.L_4481 lineCode=ugsc_16cu_xlpe/nyl/pvc_ug_4w_bundled bus1=B2100 bus2=B164 length=0.00776407354132 units=km phases=4
new line.L_4482 lineCode=uglv_240al_xlpe/nyl/pvc_ug_4w_bundled bus1=B2259 bus2=B714 length=0.0652752193127 units=km phases=4
new line.L_4486 lineCode=ugsc_16cu_xlpe/nyl/pvc_ug_4w_bundled bus1=B3205 bus2=B538 length=0.0187220673108 units=km phases=4
new line.L_4493 lineCode=ugsc_16cu_xlpe/nyl/pvc_ug_4w_bundled bus1=B99 bus2=B674 length=0.0250525414191 units=km phases=4
new line.L_4533 lineCode=uglv_240al_xlpe/nyl/pvc_ug_4w_bundled bus1=B3204 bus2=B1483 length=0.00654147364361 units=km phases=4
new line.L_4564 lineCode=ughv_400al_triplex_ug_4w_bundled bus1=B2727 bus2=B899 length=0.000328474000181 units=km phases=4
new line.L_4571 lineCode=ugsc_16cu_xlpe/nyl/pvc_ug_4w_bundled bus1=B2464 bus2=B3389 length=0.0105039803323 units=km phases=4
new line.L_4591 lineCode=ugsc_16cu_xlpe/nyl/pvc_ug_4w_bundled bus1=B220 bus2=B205 length=0.00726964618671 units=km phases=4
new line.L_4608 lineCode=ughv_400al_triplex_ug_4w_bundled bus1=B255 bus2=B1350 length=0.000255937566427 units=km phases=4
new line.L_4634 lineCode=ugsc_16cu_xlpe/nyl/pvc_ug_4w_bundled bus1=B2129 bus2=B1807 length=0.00996389729973 units=km phases=4
new line.L_4651 lineCode=ugsc_16cu_xlpe/nyl/pvc_ug_4w_bundled bus1=B409 bus2=B714 length=0.0203785026355 units=km phases=4
new line.L_4664 lineCode=ugsc_16cu_xlpe/nyl/pvc_ug_4w_bundled bus1=B3311 bus2=B221 length=0.00549129992174 units=km phases=4
new line.L_4667 lineCode=ugsc_16cu_xlpe/nyl/pvc_ug_4w_bundled bus1=B1138 bus2=B538 length=0.0100579809766 units=km phases=4
new line.L_4672 lineCode=ughv_400al_triplex_ug_4w_bundled bus1=B2727 bus2=B2726 length=0.000320883271288 units=km phases=4
